  122

 C     0.029    20.502    -3.990
 C     0.031    25.427     7.324
 C     0.108    23.870    10.757
 C     0.295    25.147     8.609
 C     0.338    21.327     1.047
 C     0.356    19.715    -5.243
 C     0.398    25.245     1.449
 C     0.562    21.854    -2.114
 C     0.612    20.838     2.384
 C     0.967    21.158    -3.188
 C     1.224    22.308     4.196
 C     1.506    25.383     0.425
 C     1.598    26.407    -0.523
 C     1.862    20.980     6.223
 C     2.105    21.364     4.980
 C     2.532    24.432     0.417
 C     2.585    20.101     6.933
 C     2.610    26.416    -1.405
 C     3.238    20.751     4.366
 C     3.572    24.525    -0.459
 C     3.604    25.543    -1.458
 C     3.737    19.534     6.380
 C     4.042    19.902     5.065
 C     4.652    18.557     7.089
 C     4.759    25.632    -2.427
 C    -0.163    24.109     9.290
 C    -0.684    21.962    -1.681
 C    -0.761    24.557     6.568
 C    -0.780    20.883     4.398
 C    -1.029    23.239     8.562
 C    -1.085    22.702    -0.426
 C    -1.104    24.744     5.104
 C    -1.276    23.442     7.237
 C    -1.306    20.581    -3.579
 C    -1.656    21.247    -2.443
 C    -2.054    20.866     0.801
 C    -2.084    20.515     3.882
 C    -3.143    21.051     1.741
 C    -3.542    24.963     1.962
 C    -3.940    22.054     3.848
 C    -4.986    24.892     1.508
 C    -5.071    21.067     4.016
 C    -5.107    20.190     5.141
 C    -5.328    23.977     0.507
 C    -6.023    25.688     2.005
 C    -6.035    20.884     3.129
 C    -6.124    19.299     5.305
 C    -6.604    23.892     0.036
 C    -7.022    19.979     3.211
 C    -7.120    19.152     4.334
 C    -7.274    25.520     1.552
 C    -7.653    24.670     0.610
 C    -8.204    18.116     4.559
 C    -9.065    24.563     0.083
 H     0.066    22.919    10.940
 H     0.272    19.931     2.444
 H     0.372    26.198     6.936
 H     0.506    20.609     0.417
 H     0.851    25.738     9.066
 H     0.852    22.973     4.797
 H     0.960    27.081    -0.541
 H     0.964    22.040     0.848
 H     1.003    24.176    10.971
 H     1.119    21.355     6.642
 H     1.218    22.300    -1.625
 H     1.574    20.788     2.491
 H     1.760    22.771     3.533
 H     1.870    21.112    -3.399
 H     2.320    19.866     7.792
 H     2.506    23.727     1.021
 H     2.616    27.099    -2.037
 H     3.428    20.931     3.473
 H     4.274    23.916    -0.402
 H     4.442    25.989    -3.271
 H     4.806    19.560     4.660
 H     5.108    24.741    -2.592
 H     5.474    26.195    -2.090
 H    -0.326    20.076     4.689
 H    -0.511    23.476    -0.314
 H    -0.530    24.331    11.324
 H    -0.907    21.442     5.180
 H    -1.434    22.525     8.999
 H    -1.671    19.989     0.960
 H    -1.798    22.830     6.772
 H    -1.967    20.170    -4.088
 H    -1.980    19.698     3.368
 H    -1.997    23.018    -0.519
 H    -2.431    20.855    -0.092
 H    -2.541    21.232    -2.157
 H    -2.654    20.305     4.638
 H    -3.624    22.331     4.723
 H    -3.631    20.216     1.812
 H    -3.752    21.713     1.377
 H    -4.269    22.842     3.388
 H    -4.423    20.225     5.771
 H    -4.674    23.418     0.155
 H    -5.844    26.333     2.649
 H    -6.026    21.435     2.377
 H    -6.155    18.779     6.074
 H    -6.793    23.320    -0.673
 H    -7.640    19.900     2.522
 H    -7.938    26.050     1.932
 H    -9.216    23.663    -0.246
 H    -9.235    25.196    -0.632
 H    -9.690    24.725     0.807
 N     0.085    21.576     3.494
 N    -0.984    21.820     0.813
 N    -2.776    21.463     3.060
 O     0.275    24.279     2.108
 O     1.588    19.516    -5.317
 O     4.104    18.132     8.129
 O     5.695    18.243     6.645
 O    -0.274    26.298     1.501
 O    -0.481    19.326    -5.972
 O    -0.802    25.900     4.735
 O    -1.629    23.903     4.473
 O    -2.745    24.162     1.637
 O    -3.356    25.993     2.645
 O    -8.339    17.568     5.590
 O    -8.841    17.924     3.501
Zn    -1.306    23.036     2.617
Zn    -1.503    26.515     3.012
