7
(C2O5)^(2-), after geometry optimisation, B3LYP functional
  C   1.72426379290214     -1.02007603160524     -0.03651134607262
  O   1.18325395744705     -1.26289783120520      1.06914214796425
  O   1.01828156204182     -0.04098322962367     -0.79569043730231
  O   2.79989193756110     -1.44563954705936     -0.49664425192334
  C   0.96514678588452     -0.02577620324579     -2.22579327981462
  O   1.03917088406425      1.12938253557842     -2.70677548427422
  O   0.76316108009914     -1.10913969283917     -2.80348734857715
