154
 
 Si         4.0054575026        1.8939101833        6.1768705278
 Si         1.7626237892       10.3632283257        8.2165448421
 Si        10.4151505295       12.5817489888        6.1787673429
 Si        12.6496204035        4.0159180057        8.2581210572
 Al         3.9147809037       12.5615236971        8.3170302141
 Si        12.5065556647       10.4264443979        6.1344515904
 Al        10.5319576157        1.8307880822        8.3327360976
 Si         1.8104562583        3.9855823813        6.1739649192
 Si         6.1818863815        3.9748055335        1.7933703963
 Si         3.9874277385        8.2757330390       12.5053719334
 Al         8.2709103374       10.5073139088        1.8346994718
 Si        10.4147970110        6.0777295952       12.5872659576
 Si         6.1536442291       10.4568131220       12.6029072505
 Si        10.3692053542        8.2409200590        1.7929003871
 Si         8.3075987230        3.8971708743       12.6570916207
 Si         4.0373097047        6.1336846639        1.8037734273
 Al         1.8184607893        6.1457639801        3.9097263783
 Al         1.8048783016        8.2350056166       10.4244901532
 Si         8.2209659084       12.6201815915        4.0773991216
 Al        12.6294257231        6.0982056155       10.5098241576
 Si         6.1591930404        1.9090877946        3.9852619296
 Si        12.5782945639        8.2834520530        3.9216634240
 Si         8.2884660166        1.7968352451       10.4477132933
 Si         6.1873042797       12.5923782908       10.4147362103
 Si        11.1302119766        8.9819354071       13.3387046704
 Si         9.0253384023        3.1989426134        1.0803668243
 Si         3.3298775073        5.4123338208       13.3267395831
 Si         5.4018054537       11.2144460827        1.0050804714
 Si        11.1132774284        5.3925865636        1.0717441786
 Si         5.4164308382        3.1772564641       13.3885199658
 Al         3.2708804857        8.9772775977        1.0132078206
 Si         9.0316083487       11.1900014587       13.3585238205
 Si        13.2923185744       11.0659712196        8.9841722676
 Si        11.1829540975        1.0106590044        5.4107909774
 Si         1.0627639209        3.2514440419        9.0241709970
 Si         3.2208735798       13.4108951347        5.4063839427
 Al        13.3350780659        3.2455504925        5.3559918654
 Si         3.2602342592        1.0841084901        9.0367174787
 Al         0.9972830619       11.2472225319        5.3667248411
 Si        11.2254842952       13.3466468309        9.0325423180
 Si         9.0622390851       13.3336486988       11.1558183024
 Si         9.0054487090        1.0937132008        3.3231069251
 Si         1.0720161599        5.3393095994       11.2120663267
 Al         5.4145721340       13.4145476383        3.2382701571
 Si        13.3409413414        9.0090048238       11.2025669456
 Si         5.4060272896        1.0444750965       11.2074350702
 Si         1.0457837554        9.0603604207        3.2015130428
 Si        13.3541016796        5.4004172478        3.1673962378
  O         0.6692273258        2.9585298715        5.6024298064
  O         3.2942023142        3.3159000355        5.8391973043
  O         1.7309122843        1.7280411078        9.0073233534
  O         2.9309363281       13.9120646197        8.9112950039
  O         3.1104974625       11.0880172653        8.7146987225
  O         1.6484474844       12.9102316381        5.4690406867
  O        13.6744194384       11.3758530696        5.5739320671
  O        11.0399823638       11.1048742393        5.8241300981
  O        12.7213793497       12.6186743680        8.9855695765
  O        11.5197239589        0.5050563789        8.9154556082
  O        11.2509856338        3.3548060465        8.6967291211
  O        12.7109406517        1.5812043250        5.4212950962
  O         0.4883020882       11.3494994319        8.7428328706
  O        11.3280135005       13.7681028100        5.5077358670
  O        13.8842950248        2.9982126375        8.7623951849
  O         3.0803298623        0.6702438733        5.5710428853
  O         5.5739471325        0.7363299654        3.0854426944
  O         5.8783315922        3.3658312015        3.2830734450
  O         8.9533602803        1.7496831030        1.8248989694
  O         0.5276803605        8.8973722821       11.5036815419
  O         3.3728131270        8.6325393548       11.0662115385
  O         1.7872724132        5.3258344699       12.7326286967
  O         8.7866654442       13.9021872079        3.1955621407
  O         8.6181493926       11.2405169174        3.3784641558
  O         5.4619068676       12.6840221050        1.6746437017
  O        13.9014560271        5.4781985102       11.6064817765
  O        11.0980300699        5.6404801787       11.2155031610
  O        12.6807463490        9.0349737100       12.7516759429
  O         5.5576477950       13.8331870272       11.3207569252
  O         5.8272742295       11.1807250258       11.1604702088
  O         9.0586933990       12.6654453722       12.6323262135
  O        13.8003506826        8.9153732959        3.0559771810
  O        11.1604051164        8.6078977245        3.1899303939
  O        12.6505502682        5.4831850803        1.6459501395
  O         8.9171079502        0.5477969539       11.3212772275
  O         8.6782969473        3.1863718539       11.2366121996
  O         5.3662106117        1.6805132050       12.7187701558
  O         0.5068241441        5.6203177757        2.8678768597
  O         3.3473480192        5.7247372340        3.1915882945
  O         1.6148590034        8.9589989886        1.6642413406
  O         3.1287504616        5.5671985102        0.5356615604
  O         2.9690726640        8.7486385886       13.7056160150
  O         8.9764281396       11.4181971979        0.5286494139
  O        11.3696885937        5.5337822866       13.8645210394
  O         5.5578693528        3.0143345633        0.6118146953
  O        11.3166187799        8.7984913572        0.5559212754
  O         8.9068915661        2.9580465344       13.8795629873
  O         5.5443308871       11.4137630464       13.7782851971
  O         7.7785492549       10.2786666759       12.7674870826
  O        10.4058476704       10.3742034795       12.9201160913
  O         8.8725165753        8.8275163021        1.8119567603
  O        10.1915274800        6.5964294453        1.6699655733
  O        10.4381422528        3.9516585988        1.4427058160
  O         8.9173933698        5.4132184663       12.7628441486
  O         6.6837669042        4.0526645040       12.8187651981
  O         4.0436473633        3.9704058065       12.9969231867
  O         5.5805234969        5.4947659113        1.6986282758
  O         4.3382479944        7.7269637425        1.6325129544
  O         3.9221627393       10.5688611614        1.3228906201
  O         5.4950437782        8.9510886209       12.6834975059
  O         7.8024626099        4.1704019398        1.5975554775
  O         4.2211574821        6.6260141413       12.6933750260
  O         6.5545346280       10.1848461848        1.5473060742
  O        10.2601562632        7.7092046593       12.7690548653
  O        12.7195054399        7.8345605841       10.3108552921
  O        12.9936906986       10.4522167215       10.4582384220
  O         1.5751020152        8.8494557497        8.7862644356
  O         7.8033215655        1.7615586195        4.2877189326
  O        10.4596354755        1.4196154930        3.9806537271
  O         8.8619850320       12.6729681322        5.6342505796
  O         1.6280929658        6.5010789953       10.2616408854
  O         1.3769070428        3.8745017317       10.4990906581
  O        12.8476726825        5.5156327954        8.8717999976
  O         6.6310871618       12.8274373407        4.3920091222
  O         3.8126102516       13.0794330107        3.9323563724
  O         5.5482223705        1.9237794394        5.5508729319
  O        12.7516124363        6.6512220417        4.1400789037
  O        12.9449595884        4.0047436605        3.8398450617
  O         1.7204055806        5.4978110872        5.5680080874
  O         6.6463009704        1.6718247827       10.3352725507
  O         4.0103850690        1.4581530617       10.4394100761
  O         5.5835741760       12.6078051275        8.8999223904
  O         1.6153807581        7.8996658483        4.2088306643
  O         1.3713786938       10.5610442982        3.7803313981
  O        12.5192662854        8.8798187941        5.4808111924
  O         7.8145377332       12.7780873722       10.2346606487
  O        10.4723332773       12.9310147239       10.4216591269
  O         8.8465403567        1.8154051917        8.9225776945
  O        10.2961669929       12.7501268117        7.8048517761
  O        10.2166510304        1.5832127229        6.5950453695
  O         1.7247839579        4.1535606168        7.8250929613
  O         4.1800515972       12.8131502026        6.5787048441
  O        12.6480233027       10.1570553155        7.7717296119
  O         4.1971788348        1.6634578514        7.7994641006
  O         1.6699305173       10.1870310184        6.5909974622
  O        12.7501999071        4.2796248669        6.6396674721
 Na         6.5796233881       12.4373284064        6.7162688929
 Na         7.8577929371        1.9955493824        6.7517466833
 Na         2.5740169304       11.9511787852        2.4271157705
 Na         0.5447964063       13.7866393671        9.1877018475
 Na         1.8941342627        7.7380930596        6.6606118179
 Na        13.9325504291        5.1985539750       13.9441417497
 Na         0.6210695175        9.0610632018       13.8429793518
 Na        12.5099387039        6.6431199740        6.7784550174
 Na         0.4446584219        0.5542282969        5.3820035990
 Na         6.7241226157        7.7972879560        1.4165321585
