52

 C     -5.57450    29.50220    32.18895
 C    -15.28567    26.73046    29.34932
 C    -16.25681    25.98086    28.74318
 C     -4.60336    30.25180    32.79509
 C    -15.88797    24.77526    28.20362
 C     -4.97220    31.45741    33.33466
 C    -14.56988    24.38498    28.28125
 C     -6.29030    31.84768    33.25703
 C    -13.64563    25.21223    28.89338
 C     -7.21454    31.02042    32.64489
 C    -12.19338    24.80157    28.96260
 C     -8.66679    31.43109    32.57568
 C    -10.02333    25.84021    29.53264
 C    -10.83684    30.39245    32.00564
 C     -9.28778    24.76199    28.99490
 C    -11.57240    31.47067    32.54338
 C     -7.91781    24.70247    29.09739
 C    -12.94237    31.53019    32.44088
 C     -7.20043    25.69831    29.74047
 C    -13.65975    30.53436    31.79781
 C     -7.88975    26.77230    30.26353
 C    -12.97042    29.46036    31.27475
 C     -9.27763    26.87714    30.17086
 C    -11.58255    29.35552    31.36742
 H     -5.31877    28.68324    31.80546
 H    -15.54141    27.54942    29.73281
 H    -17.14593    26.28214    28.69764
 H     -3.71424    29.95053    32.84063
 H     -9.05052    29.67087    31.76902
 H    -11.80966    26.56179    29.76926
 H    -16.52487    24.22402    27.78647
 H     -4.33531    32.00864    33.75181
 H    -14.29941    23.56016    27.92027
 H     -6.56076    32.67250    33.61802
 H    -11.88951    24.52426    28.07387
 H     -8.97067    31.70840    33.46441
 H    -12.09760    24.03750    29.56882
 H     -8.76257    32.19516    31.96945
 H     -9.74551    24.06807    28.55518
 H    -11.11466    32.16459    32.98310
 H     -7.45970    23.97181    28.72436
 H    -13.40048    32.26085    32.81392
 H     -6.26532    25.64347    29.81859
 H    -14.59485    30.58919    31.71968
 H     -7.40939    27.45472    30.69683
 H    -13.45079    28.77794    30.84145
 N     -6.86468    29.85403    32.10446
 N    -13.99550    26.37862    29.43382
 N    -11.37581    25.89458    29.43185
 N     -9.48436    30.33808    32.10643
 N     -9.79574    28.03680    30.78936
 N    -11.06443    28.19586    30.74892
