58

 C     31.52863    35.62204   -23.11759
 C     34.12268    37.27958   -24.88478
 C     30.38352    36.38535   -23.33780
 C     35.26778    36.51627   -24.66457
 C     29.18256    36.04107   -22.79152
 C     36.46875    36.86056   -25.21084
 C     29.10759    34.91985   -21.98007
 C     36.54370    37.98178   -26.02230
 C     30.21111    34.14302   -21.74284
 C     35.44019    38.75860   -26.25953
 C     31.45482    34.44778   -22.32229
 C     34.19648    38.45384   -25.68007
 C     32.59626    32.47517   -21.33642
 C     33.05504    40.42645   -26.66595
 C     32.80663    32.79399   -19.85661
 C     32.84467    40.10763   -28.14576
 C     32.70396    31.57067   -19.00016
 C     32.94734    41.33095   -29.00221
 C     31.50739    31.19041   -18.43731
 C     34.14392    41.71122   -29.56506
 C     31.43216    30.04942   -17.68830
 C     34.21915    42.85221   -30.31407
 C     32.56168    29.30368   -17.50790
 C     33.08963    43.59794   -30.49447
 C     33.71093    29.72421   -18.10793
 C     31.94037    43.17741   -29.89444
 H     30.44114    37.16323   -23.88054
 H     35.21016    35.73839   -24.12183
 H     28.40844    36.56252   -22.96478
 H     37.24286    36.33910   -25.03760
 H     28.27697    34.68589   -21.58195
 H     37.37433    38.21574   -26.42042
 H     30.13480    33.38534   -21.17597
 H     35.51649    39.51628   -26.82640
 H     30.73065    31.72195   -18.56916
 H     34.92065    41.17968   -29.43321
 H     30.60778    29.77937   -17.29967
 H     35.04352    43.12225   -30.70271
 H     32.54805    28.51501   -16.97942
 H     33.10326    44.38662   -31.02295
 H     34.49278    29.19759   -17.98990
 H     31.15852    43.70403   -30.01247
 H     33.28390    33.88427   -22.56765
 H     32.36740    39.01736   -25.43472
 H     33.33495    31.89558   -21.65081
 H     32.31635    41.00605   -26.35156
 H     31.74967    31.97309   -21.44166
 H     33.90163    40.92853   -26.56071
 H     33.70062    33.20325   -19.73547
 H     31.95068    39.69838   -28.26690
 H     32.12770    33.45313   -19.56551
 H     33.52360    39.44849   -28.43686
 N     32.79480    35.92262   -23.65279
 N     32.85650    36.97900   -24.34958
 N     32.54609    33.66231   -22.16052
 N     33.10521    39.23932   -25.84185
 N     33.81084    30.83096   -18.85333
 N     31.84047    42.07066   -29.14904
