52

 C      0.68684     1.15652   -45.69850
 C     -0.65158     0.68812   -45.33988
 C     -1.63962     0.84718   -46.26335
 C     -1.38696     1.46996   -47.43893
 C     -0.09153     1.88977   -47.75014
 C     -2.41325     1.71123   -48.52655
 C     -5.86821     2.00659   -47.02270
 C     -6.54389     2.81310   -46.11096
 C     -5.92310     3.89401   -45.50869
 C     -4.59909     4.16512   -45.85480
 C     -3.90195     3.36138   -46.72578
 C     -4.52679     2.28499   -47.26746
 C    -12.70781    -0.87350   -48.20389
 C    -11.42319    -0.40350   -48.39577
 C    -11.19245     0.21722   -49.64819
 C    -12.24284     0.32161   -50.55993
 C    -13.43194    -0.11390   -50.23244
 C    -10.36391    -0.53273   -47.32991
 C     -8.33589    -1.06186   -48.57200
 C     -8.89313    -2.22314   -49.20854
 C     -8.18755    -3.05744   -50.07533
 C     -6.86669    -2.78185   -50.37207
 C     -6.26555    -1.69793   -49.78054
 C     -6.93500    -0.82117   -48.90409
 H      1.39111     1.03089   -45.10603
 H     -0.82088     0.29769   -44.51272
 H     -2.49386     0.52557   -46.08526
 H      0.09863     2.27015   -48.57769
 H     -7.42973     2.62220   -45.90296
 H     -6.37597     4.42276   -44.89216
 H     -4.17788     4.90988   -45.48896
 H     -3.01656     3.55093   -46.93970
 H    -12.86920    -1.34538   -47.41854
 H    -10.35025     0.55067   -49.85954
 H    -12.09763     0.70035   -51.39644
 H    -14.11793    -0.01418   -50.85071
 H     -9.78259    -2.43275   -49.02962
 H     -8.60625    -3.79947   -50.45344
 H     -6.39133    -3.32155   -50.96235
 H     -5.37009    -1.53339   -49.96829
 H     -8.61073     0.09522   -47.34791
 H     -2.19396     1.15893   -49.29242
 H     -2.35845     2.63841   -48.80885
 H    -10.39643    -1.43292   -46.96942
 H    -10.57604     0.07880   -46.60702
 H     -4.21732     0.57890   -48.47437
 N      0.89161     1.72962   -46.81551
 N    -13.73482    -0.71706   -49.03277
 N     -9.02242    -0.26560   -47.77550
 N     -6.11763     0.12701   -48.41238
 N     -3.77770     1.42597   -48.11961
 N     -6.67904     0.94478   -47.58676
