58

 C    -24.22046    70.68426   -23.92204
 C    -25.18397    70.17363   -22.99423
 C    -25.20483    68.85096   -22.60956
 C    -24.21747    67.98663   -23.09245
 C    -23.24129    68.43250   -23.97325
 C    -23.22714    69.80000   -24.43148
 C    -23.64369    73.98222   -25.20727
 C    -22.82177    74.56509   -26.21864
 C    -22.73085    75.97742   -26.26627
 C    -23.45293    76.77451   -25.37416
 C    -24.28976    76.19911   -24.42574
 C    -24.37992    74.80421   -24.33083
 C    -21.18908    74.21138   -28.11934
 C    -19.82020    74.53270   -27.51024
 C    -18.82762    74.96612   -28.59503
 C    -18.80154    76.31121   -29.00750
 C    -17.90137    76.69730   -30.02144
 C    -17.10031    75.73830   -30.58178
 C    -17.21059    74.42809   -30.16728
 C    -17.16514    69.07016   -28.54463
 C    -17.04740    67.71012   -28.30616
 C    -17.98259    67.08989   -27.48377
 C    -19.01317    67.85709   -26.94487
 C    -19.09663    69.21463   -27.24353
 C    -21.17791    69.35661   -25.77845
 C    -20.21141    70.11385   -26.69719
 H    -25.81737    70.75401   -22.64095
 H    -25.86655    68.53711   -22.03440
 H    -24.21524    67.09737   -22.82060
 H    -22.58703    67.84214   -24.27117
 H    -22.26735    71.04794   -25.57813
 H    -22.18315    76.38095   -26.90166
 H    -23.37245    77.70113   -25.41359
 H    -24.78977    76.73714   -23.85644
 H    -24.92763    74.42062   -23.68595
 H    -19.36937    76.93642   -28.61713
 H    -17.85294    77.58157   -30.30292
 H    -16.48405    75.96996   -31.23873
 H    -16.68152    73.78543   -30.58078
 H    -16.52354    69.48116   -29.07912
 H    -16.35662    67.21942   -28.69031
 H    -17.92074    66.18072   -27.29589
 H    -19.64508    67.46104   -26.38733
 H    -22.27629    72.89120   -27.05819
 H    -21.08401    73.53136   -28.80393
 H    -21.54528    75.00847   -28.54322
 H    -19.91558    75.24261   -26.85677
 H    -19.47816    73.74807   -27.05465
 H    -20.68982    69.00291   -25.01921
 H    -21.56316    68.60934   -26.26199
 H    -19.81349    70.84866   -26.20320
 H    -20.70844    70.48997   -27.44032
 N    -18.15995    69.82989   -28.04446
 N    -18.06009    74.03702   -29.17922
 N    -23.58259    72.56738   -25.09782
 N    -24.38141    72.04927   -24.21147
 N    -22.13471    73.73811   -27.10732
 N    -22.24649    70.23341   -25.30477
