324

C 34.26357000 -0.80854000 -8.77979000
C 34.14393000 -4.33163000 -12.98180000
C 33.07611000 -1.50705000 -8.21890000
C 49.43681000 -3.58083000 -8.08389000
C 50.12946000 1.74855000 -9.17994000
C 50.44640000 -3.44301000 -7.00024000
C 35.01445000 1.55843000 -15.72240000
C 49.02460000 2.16225000 -10.08586000
C 33.82699000 0.85993000 -15.16150000
C 50.18769000 -1.21386000 -15.02649000
C 51.19728000 -1.07604000 -13.94285000
C 35.42667000 -4.18465000 -13.72042000
C 31.78201000 -0.97525000 -8.33988000
C 51.23638000 2.57865000 -8.93954000
C 33.06814000 -5.06360000 -13.51003000
C 48.11158000 -3.14717000 -7.91704000
C 35.55767000 -1.34034000 -8.65881000
C 51.77163000 -3.87667000 -7.16709000
C 32.53289000 1.39172000 -15.28249000
C 48.86245000 -0.78020000 -14.85965000
C 36.30855000 1.02663000 -15.60141000
C 52.52251000 -1.50970000 -14.10969000
C 47.91767000 1.33214000 -10.32626000
C 36.50246000 -3.45268000 -13.19219000
C 30.66493000 -1.65139000 -7.85602000
C 52.29301000 2.17258000 -8.12850000
C 31.85134000 -5.16244000 -12.84014000
C 47.15467000 -3.31841000 -8.91411000
C 36.67475000 -0.66420000 -9.14267000
C 52.72854000 -3.70544000 -6.17001000
C 31.41581000 0.71558000 -14.79863000
C 47.90554000 -0.95143000 -15.85672000
C 37.42563000 1.70277000 -16.08528000
C 53.47942000 -1.33846000 -13.11262000
C 46.86104000 1.73821000 -11.13730000
C 37.71926000 -3.35385000 -13.86209000
C 36.55404000 0.57548000 -9.77369000
C 31.64986000 -4.53708000 -11.60810000
C 30.78564000 -2.89107000 -7.22500000
C 47.47494000 -3.92901000 -10.12827000
C 52.29492000 0.91814000 -7.51536000
C 52.40826000 -3.09484000 -4.95586000
C 37.30492000 2.94246000 -16.71630000
C 46.85913000 2.99266000 -11.75045000
C 31.53652000 -0.52410000 -14.16760000
C 48.22582000 -1.56203000 -17.07087000
C 53.15914000 -0.72786000 -11.89847000
C 37.92073000 -3.97921000 -15.09412000
C 35.26627000 1.09580000 -9.93043000
C 32.72667000 -3.83613000 -11.05781000
C 32.07341000 -3.41139000 -7.06826000
C 48.80008000 -4.33152000 -10.31703000
C 51.18075000 0.09940000 -7.72015000
C 51.08313000 -2.69232000 -4.76710000
C 36.01715000 3.46277000 -16.87304000
C 47.97330000 3.81139000 -11.54566000
C 32.82430000 -1.04441000 -14.01086000
C 49.55096000 -1.96455000 -17.25964000
C 51.83401000 -0.32534000 -11.70970000
C 36.84393000 -4.68015000 -15.64441000
C 34.15089000 0.42262000 -9.44921000
C 33.94122000 -3.73706000 -11.72404000
C 33.18879000 -2.73821000 -7.54948000
C 49.75602000 -4.16094000 -9.32411000
C 50.12563000 0.50291000 -8.52806000
C 50.12719000 -2.86291000 -5.76002000
C 34.90177000 2.78959000 -16.39181000
C 49.02842000 3.40789000 -10.73774000
C 33.93967000 -0.37124000 -14.49209000
C 50.50690000 -1.79396000 -16.26672000
C 50.87806000 -0.49593000 -12.70262000
C 35.62938000 -4.77923000 -14.97818000
C 37.74988000 1.38921000 -10.23477000
C 30.31428000 -4.54182000 -10.88633000
C 29.58981000 -3.70480000 -6.76392000
C 46.44553000 -4.21810000 -11.20600000
C 53.46408000 0.39825000 -6.69832000
C 53.43768000 -2.80574000 -3.87813000
C 38.50076000 3.75618000 -17.17737000
C 45.68997000 3.51255000 -12.56748000
C 30.34068000 -1.33783000 -13.70653000
C 47.19641000 -1.85113000 -18.14861000
C 54.18855000 -0.43877000 -10.82073000
C 39.25632000 -3.97447000 -15.81589000
C 39.02811000 0.63780000 -10.42788000
C 29.35130000 -5.61534000 -11.28131000
C 28.31157000 -2.95339000 -6.57082000
C 45.18172000 -3.42124000 -11.14619000
C 54.41264000 1.42632000 -6.17005000
C 54.70149000 -3.60260000 -3.93794000
C 39.77900000 3.00477000 -17.37048000
C 44.74141000 2.48447000 -13.09576000
C 29.06245000 -0.58642000 -13.51342000
C 45.93260000 -1.05427000 -18.08880000
C 55.45237000 -1.23563000 -10.88054000
C 40.21931000 -2.90095000 -15.42092000
C 39.95390000 0.26769000 -9.44665000
C 28.49067000 -5.62246000 -12.38410000
C 27.38578000 -2.58328000 -7.55205000
C 44.06275000 -3.66007000 -10.34135000
C 55.46644000 2.04238000 -6.85333000
C 55.82046000 -3.36377000 -4.74278000
C 40.70478000 2.63466000 -16.38925000
C 43.68761000 1.86842000 -12.41248000
C 28.13666000 -0.21631000 -14.49465000
C 44.81363000 -1.29310000 -17.28396000
C 56.57133000 -0.99680000 -11.68538000
C 41.07993000 -2.89382000 -14.31812000
C 27.77998000 -2.44426000 -5.38066000
C 55.02710000 -4.76103000 -3.22360000
C 28.53086000 -0.07729000 -12.32327000
C 54.43823000 2.00468000 -4.89604000
C 29.11973000 -6.84300000 -10.65084000
C 55.77798000 -2.39406000 -10.16621000
C 44.85611000 -2.26281000 -11.86053000
C 39.55971000 0.12867000 -11.61803000
C 44.71582000 1.90612000 -14.36977000
C 40.45087000 -1.67329000 -16.05139000
C 45.60698000 0.10416000 -18.80313000
C 40.31059000 2.49564000 -18.56063000
C 39.94043000 0.59936000 -7.99215000
C 28.25952000 -4.53803000 -13.38226000
C 27.39926000 -2.91495000 -9.00654000
C 43.81870000 -4.80354000 -9.41472000
C 55.95512000 1.76975000 -8.23630000
C 56.06451000 -2.22030000 -5.66941000
C 40.69130000 2.96633000 -14.93475000
C 43.19893000 2.14104000 -11.02951000
C 28.15014000 -0.54798000 -15.94915000
C 44.56958000 -2.43657000 -16.35732000
C 56.81538000 0.14667000 -12.61201000
C 41.31107000 -3.97826000 -13.31996000
C 28.35747000 -2.52065000 -4.00890000
C 54.19353000 -5.49190000 -2.22759000
C 29.10835000 -0.15367000 -10.95151000
C 53.52362000 1.74291000 -3.74886000
C 29.77825000 -7.38848000 -9.43024000
C 54.94440000 -3.12493000 -9.17020000
C 45.68968000 -1.53194000 -12.85654000
C 38.98222000 0.20506000 -12.98979000
C 45.63043000 2.16789000 -15.51695000
C 39.79235000 -1.12780000 -17.27198000
C 46.44056000 0.83503000 -19.79914000
C 39.73310000 2.57203000 -19.93239000
H 31.62360000 -0.01708000 -8.82709000
H 47.80037000 -2.67065000 -6.99150000
H 35.71609000 -2.29851000 -8.17160000
H 52.08284000 -4.35319000 -8.09263000
H 47.85896000 0.34700000 -9.87174000
H 36.40837000 -2.94919000 -12.23396000
H 32.37448000 2.34989000 -15.76969000
H 51.29509000 3.56380000 -9.39406000
H 33.16222000 -5.56710000 -14.46826000
H 48.55125000 -0.30368000 -13.93410000
H 36.46696000 0.06846000 -15.11421000
H 52.83372000 -1.98622000 -15.03523000
H 29.68001000 -1.20721000 -7.97693000
H 53.13440000 2.84367000 -7.97453000
H 31.04176000 -5.73328000 -13.28814000
H 46.13795000 -2.97447000 -8.74100000
H 37.65967000 -1.10838000 -9.02176000
H 53.74526000 -4.04937000 -6.34313000
H 30.43089000 1.15976000 -14.91954000
H 46.88882000 -0.60750000 -15.68360000
H 38.41055000 1.25859000 -15.96436000
H 54.49614000 -1.68240000 -13.28574000
H 46.01966000 1.06713000 -11.29127000
H 38.52884000 -2.78301000 -13.41409000
H 35.13059000 2.04896000 -10.43673000
H 32.61445000 -3.35425000 -10.08907000
H 32.20910000 -4.36455000 -6.56196000
H 49.09237000 -4.79104000 -11.25867000
H 51.13636000 -0.87613000 -7.24095000
H 50.79084000 -2.23280000 -3.82546000
H 35.88147000 4.41593000 -17.37934000
H 48.01769000 4.78693000 -12.02485000
H 32.95997000 -1.99758000 -13.50456000
H 49.84325000 -2.42407000 -18.20127000
H 51.54172000 0.13417000 -10.76806000
H 36.95615000 -5.16204000 -16.61315000
H 33.18134000 0.88881000 -9.59755000
H 50.76440000 -4.50476000 -9.53469000
H 49.29580000 -0.18684000 -8.65055000
H 34.73223000 -3.16967000 -11.24263000
H 49.11880000 -2.51908000 -5.54943000
H 34.15835000 -3.20440000 -7.40114000
H 33.93221000 3.25578000 -16.54016000
H 49.85825000 4.09764000 -10.61526000
H 34.83837000 -5.34661000 -15.45960000
H 51.51528000 -2.13779000 -16.47730000
H 49.86968000 -0.15211000 -12.49204000
H 34.90923000 -0.83743000 -14.34374000
H 38.96681000 0.37339000 -7.54655000
H 29.20698000 -4.16067000 -13.77908000
H 28.37287000 -2.68898000 -9.45214000
H 44.67189000 -4.95718000 -8.74688000
H 55.12808000 1.77200000 -8.95292000
H 55.21132000 -2.06666000 -6.33725000
H 39.71769000 2.74036000 -14.48915000
H 44.02597000 2.13879000 -10.31288000
H 29.12375000 -0.32201000 -16.39475000
H 45.42277000 -2.59021000 -15.68948000
H 55.96220000 0.30031000 -13.27986000
H 40.36362000 -4.35562000 -12.92315000
H 40.70512000 0.04533000 -7.43956000
H 27.64966000 -4.88029000 -14.22368000
H 26.63456000 -2.36092000 -9.55913000
H 42.92767000 -4.64776000 -8.79920000
H 56.69132000 2.51026000 -8.56298000
H 56.95554000 -2.37608000 -6.28492000
H 41.45601000 2.41230000 -14.38216000
H 42.46273000 1.40054000 -10.70283000
H 27.38544000 0.00605000 -16.50174000
H 43.67855000 -2.28079000 -15.74181000
H 57.70642000 -0.00911000 -13.22753000
H 41.92094000 -3.63600000 -12.47854000
H 40.11868000 1.67275000 -7.83582000
H 27.74818000 -3.68323000 -12.91723000
H 27.22101000 -3.98834000 -9.16287000
H 43.68435000 -5.73856000 -9.97693000
H 56.42256000 0.77658000 -8.29544000
H 56.19886000 -1.28528000 -5.10720000
H 40.86956000 4.03972000 -14.77842000
H 42.73149000 3.13422000 -10.97037000
H 27.97189000 -1.62137000 -16.10548000
H 44.43523000 -3.37159000 -16.91954000
H 56.94973000 1.08169000 -12.04980000
H 41.82242000 -4.83305000 -13.78499000
H 27.60699980 -2.85658086 -3.32417747
H 54.77521055 -5.68835913 -1.35126155
H 28.35783578 -0.48944193 -10.26675777
H 53.68209741 2.48114196 -2.99070534
H 29.52594026 -8.42252590 -9.32074628
H 55.52607548 -3.32138960 -8.29386829
H 45.10802768 -1.33556400 -13.73290582
H 39.52562465 -0.44596905 -13.64230251
H 45.47076613 1.43065301 -16.27582355
H 40.04521810 -0.09392985 -17.38184461
H 45.99120002 1.78203402 -20.01398642
H 40.27650484 1.92100119 -20.58490258
H 29.86550000 -4.22776000 -5.83891000
H 52.95611000 -2.93174000 -2.89967000
H 30.50693000 -4.58405000 -9.80640000
H 30.61638000 -1.86079000 -12.78151000
H 53.06556000 -0.20848000 -5.87479000
H 53.70699000 -0.56477000 -9.84228000
H 37.47419000 1.91217000 -11.15978000
H 46.08850000 4.11928000 -13.39102000
H 46.92710000 -4.09210000 -12.18446000
H 39.06367000 -3.93224000 -16.89582000
H 38.22506000 4.27914000 -18.10239000
H 47.67798000 -1.72513000 -19.12706000
H 37.91496000 2.18719000 -9.49316000
H 29.84188000 -3.56074000 -11.05464000
H 29.42473000 -4.50278000 -7.50553000
H 46.19384000 -5.28914000 -11.14668000
H 54.02310000 -0.30977000 -7.33094000
H 53.68937000 -1.73470000 -3.93744000
H 38.66584000 4.55416000 -16.43577000
H 45.13095000 4.22056000 -11.93487000
H 30.17561000 -2.13581000 -14.44813000
H 46.94471000 -2.92217000 -18.08929000
H 54.44025000 0.63227000 -10.88005000
H 39.72872000 -4.95554000 -15.64759000
N 26.62313000 -1.80666000 -5.64198000
N 55.43334000 2.90964000 -4.83345000
N 28.19243000 -7.53421000 -11.34036000
N 43.63145000 -1.83896000 -11.49490000
N 40.71655000 -0.50893000 -11.35672000
N 56.25175000 -5.18489000 -3.58922000
N 27.37401000 0.56031000 -12.58458000
N 44.38233000 0.52802000 -18.43751000
N 41.46743000 1.85804000 -18.29932000
N 57.00264000 -2.81791000 -10.53183000
N 43.72071000 1.00116000 -14.43236000
N 41.37817000 -0.98207000 -15.36186000
N 26.38486000 -1.88488000 -6.98397000
N 56.06200000 2.93913000 -6.04496000
N 27.81108000 -6.78413000 -12.41544000
N 43.14588000 -2.69675000 -10.55031000
N 40.95482000 -0.43071000 -10.01472000
N 56.73733000 -4.32709000 -4.53382000
N 27.13574000 0.48209000 -13.92658000
N 43.89676000 -0.32978000 -17.49291000
N 41.70570000 1.93626000 -16.95732000
N 57.48821000 -1.96012000 -11.47643000
N 43.09206000 0.97166000 -13.22085000
N 41.75952000 -1.73215000 -14.28679000
Zn 42.67517000 0.40589000 -16.05963000
Zn 42.29974000 -0.77760000 -12.58832000
H 26.35155251 0.87629875 -14.40579753
H 27.14125803 -7.05192049 -13.10799093
H 25.60067028 -1.49067141 -7.46318402
H 57.62292829 -4.40162899 -4.99225169
H 58.37380377 -2.03465861 -11.93487047
H 56.83324320 3.52658998 -6.29006142
H 41.73900749 -0.82491875 -9.53550247
H 42.26028264 -2.62221121 -10.09187649
H 42.05172510 1.40500596 -18.97263968
H 43.90965712 1.33292190 -18.79627634
H 29.92817792 -0.84124951 -10.94743657
H 29.45365480 0.81484315 -10.65545786
H 30.83953325 -7.28813512 -9.52248294
H 29.44207104 -6.84641473 -8.57114225
H 29.17739978 -3.20810828 -4.00486758
H 28.70262877 -1.55210631 -3.71277749
H 37.95528866 -0.09413659 -12.96162235
H 39.05112834 1.21013109 -13.35032260
H 38.73103359 -1.22751565 -17.17943670
H 40.12800232 -1.67031038 -18.13100270
H 38.70616874 2.27283311 -19.90422240
H 39.80200805 3.57710115 -20.29292247
H 46.53828628 -2.12890937 -13.11806427
H 46.02120253 -0.60660544 -12.43375310
H 46.64548857 2.12071744 -15.18179205
H 45.43169427 3.14024154 -15.91687074
H 47.42134125 0.98804844 -19.39969852
H 46.50762016 0.25974675 -20.69883557
H 54.09584351 -2.52791872 -8.90860982
H 54.61279958 -4.05022090 -9.59302138
H 52.50860075 1.78841208 -4.08436779
H 53.72350288 0.77123398 -3.34787053
H 53.34497359 -4.89489082 -1.96599478
H 53.86192937 -6.41719124 -2.65041047
